LTspice 26.0.1 for Windows
Circuit: C:\VLSI\4_16_GEOMETRIC_OPTIMIZED_FINAL.net
Start Time: Wed Mar 11 16:42:15 2026
solver = Normal
Maximum thread count: 8
tnom = 27
temp = 27
method = trap
Direct Newton iteration succeeded in finding operating point.
Total elapsed time: 0.406 seconds.

Files loaded:
C:\VLSI\4_16_GEOMETRIC_OPTIMIZED_FINAL.net
C:\VLSI\32nm_LP.pm

pwr_416: AVG(I(Vcc)*V(vcc))=-2.07008552344e-06 FROM 0 TO 1.28e-07
delay=4.02227967086e-11 FROM 5.00000001264e-10 TO 5.40222797972e-10
